6
-7.8295349634479450e+01 frame 85   xyz file generated by TeraChem
     H     0.8529965186   -0.5975442252    0.9074387146
     C     0.2785897792    0.1371645653    0.2978951136
     H     0.9930687044    0.5757821515   -0.4385703161
     C    -0.8461571629   -0.4412009103   -0.3904973045
     H    -0.0044685103    0.9531329855    1.0002446570
     H    -1.2741293290   -0.6273345668   -1.3769108644